@<TRIPOS>MOLECULE
fma
    4     3     1     0     0
SMALL
resp


@<TRIPOS>ATOM
      1 O1         -0.6820   -0.0010    0.0000 o         1 fma     -0.451008
      2 C1          0.5390    0.0000   -0.0000 c         1 fma      0.377417
      3 H1          1.1210   -0.9320    0.0000 h4        1 fma      0.036795
      4 H2          1.1030    0.9410    0.0000 h4        1 fma      0.036795
@<TRIPOS>BOND
     1    1    2 2   
     2    2    3 1   
     3    2    4 1   
@<TRIPOS>SUBSTRUCTURE
     1 fma         1 TEMP              0 ****  ****    0 ROOT
